<routes>
<vType id="Human" color="red" guiShape="passenger/sedan"/>
<vType id="AV" color="yellow"/>
<route id="0_0_0" edges="
-25166682#0 -23648008#0 -297047307 22959550#0 22959550#1 22959550#3 22959550#4 28675510#1 23840713#0 23840971
" />
<route id="0_0_1" edges="
-25166682#0 -23648008#0 -297047307 -297047310#3 -297047310#2 186623965#15 22917421#5 -28675510#5 23840713#0 23840971
" />
<route id="0_0_2" edges="
-25166682#0 -23648008#0 -297047307 22959550#0 23647126 -8716807#5 -8716807#4 -8716807#0 28675510#0 28675510#1 23840713#0 23840971
" />
<route id="0_1_0" edges="
-25166682#0 -23648008#0 -297047307 -297047310#3 -297047310#2 -186623965#14
" />
<route id="0_1_1" edges="
-25166682#0 23648008#1 -23648008#1 -23648008#0 -297047307 -297047310#3 -297047310#2 -186623965#14
" />
<route id="0_1_2" edges="
-25166682#0 -23648008#0 -297047307 297047310#4 -297047307 -297047310#3 -297047310#2 -186623965#14
" />
<route id="1_0_0" edges="
-4936412 23686088#0 23686088#1 133081987#0 133081987#3 133081985#0 133081985#1 28675510#0 28675510#1 23840713#0 23840971
" />
<route id="1_0_1" edges="
-4936412 23686088#0 23686088#1 133081987#0 133081987#3 -309744810#1 133081987#3 133081985#0 133081985#1 28675510#0 28675510#1 23840713#0 23840971
" />
<route id="1_0_2" edges="
-4936412 23686088#0 23686088#1 133081987#0 133081987#3 23283435#1 -23283579#1 -23283579#0 28675510#0 28675510#1 23840713#0 23840971
" />
<route id="1_1_0" edges="
-4936412 23686088#0 23686088#1 133081987#0 133081987#3 133081985#0 133081985#1 28675510#0 28675510#1 28675510#4 -22917421#14 -186623965#16 -186623965#14
" />
<route id="1_1_1" edges="
-4936412 23686088#0 23686088#1 133081987#0 133081987#3 23283435#1 -23283579#1 -23283579#0 28675510#0 28675510#1 28675510#4 -22917421#14 -186623965#16 -186623965#14
" />
<route id="1_1_2" edges="
-4936412 23686088#0 23686088#1 133081987#0 133081987#3 133081985#0 133081985#1 28675510#0 28675510#1 -28675510#3 28675510#1 28675510#4 -22917421#14 -186623965#16 -186623965#14
" />
</routes>
