<additional>
<inductionLoop id="-10427692#1_det" lane="-10427692#1_0" pos="-5" file="NUL" friendlyPos="True"/>
<inductionLoop id="-10427692#2_det" lane="-10427692#2_0" pos="-5" file="NUL" friendlyPos="True"/>
<inductionLoop id="-10427692#3_det" lane="-10427692#3_0" pos="-5" file="NUL" friendlyPos="True"/>
<inductionLoop id="-10427692#4_det" lane="-10427692#4_0" pos="-5" file="NUL" friendlyPos="True"/>
<inductionLoop id="-10427692#5_det" lane="-10427692#5_0" pos="-5" file="NUL" friendlyPos="True"/>
<inductionLoop id="-10427692#6_det" lane="-10427692#6_0" pos="-5" file="NUL" friendlyPos="True"/>
<inductionLoop id="-10427692#7_det" lane="-10427692#7_0" pos="-5" file="NUL" friendlyPos="True"/>
<inductionLoop id="-10427692#8_det" lane="-10427692#8_0" pos="-5" file="NUL" friendlyPos="True"/>
<inductionLoop id="-136728347#4_det" lane="-136728347#4_0" pos="-5" file="NUL" friendlyPos="True"/>
<inductionLoop id="-160314345#0_det" lane="-160314345#0_0" pos="-5" file="NUL" friendlyPos="True"/>
<inductionLoop id="-170018165#0_det" lane="-170018165#0_0" pos="-5" file="NUL" friendlyPos="True"/>
<inductionLoop id="-174800513_det" lane="-174800513_0" pos="-5" file="NUL" friendlyPos="True"/>
<inductionLoop id="-18809672#6_det" lane="-18809672#6_0" pos="-5" file="NUL" friendlyPos="True"/>
<inductionLoop id="-18813598#1_det" lane="-18813598#1_0" pos="-5" file="NUL" friendlyPos="True"/>
<inductionLoop id="-18813598#6_det" lane="-18813598#6_0" pos="-5" file="NUL" friendlyPos="True"/>
<inductionLoop id="-18813598#7_det" lane="-18813598#7_0" pos="-5" file="NUL" friendlyPos="True"/>
<inductionLoop id="-18813598#8_det" lane="-18813598#8_0" pos="-5" file="NUL" friendlyPos="True"/>
<inductionLoop id="-201201945#0_det" lane="-201201945#0_0" pos="-5" file="NUL" friendlyPos="True"/>
<inductionLoop id="-201201945#0.78_det" lane="-201201945#0.78_0" pos="-5" file="NUL" friendlyPos="True"/>
<inductionLoop id="-201201945#1_det" lane="-201201945#1_0" pos="-5" file="NUL" friendlyPos="True"/>
<inductionLoop id="-201201945#2_det" lane="-201201945#2_0" pos="-5" file="NUL" friendlyPos="True"/>
<inductionLoop id="-201201945#6_det" lane="-201201945#6_0" pos="-5" file="NUL" friendlyPos="True"/>
<inductionLoop id="-201201945#7_det" lane="-201201945#7_0" pos="-5" file="NUL" friendlyPos="True"/>
<inductionLoop id="-201201945#8_det" lane="-201201945#8_0" pos="-5" file="NUL" friendlyPos="True"/>
<inductionLoop id="-201238718#0_det" lane="-201238718#0_0" pos="-5" file="NUL" friendlyPos="True"/>
<inductionLoop id="-201238718#1_det" lane="-201238718#1_0" pos="-5" file="NUL" friendlyPos="True"/>
<inductionLoop id="-201238724_det" lane="-201238724_0" pos="-5" file="NUL" friendlyPos="True"/>
<inductionLoop id="-201238726#0_det" lane="-201238726#0_0" pos="-5" file="NUL" friendlyPos="True"/>
<inductionLoop id="-201238726#0.98_det" lane="-201238726#0.98_0" pos="-5" file="NUL" friendlyPos="True"/>
<inductionLoop id="-201238726#1_det" lane="-201238726#1_0" pos="-5" file="NUL" friendlyPos="True"/>
<inductionLoop id="-201950263#6_det" lane="-201950263#6_0" pos="-5" file="NUL" friendlyPos="True"/>
<inductionLoop id="-201963522#9_det" lane="-201963522#9_0" pos="-5" file="NUL" friendlyPos="True"/>
<inductionLoop id="-224892339#3_det" lane="-224892339#3_0" pos="-5" file="NUL" friendlyPos="True"/>
<inductionLoop id="-22690205#1_det" lane="-22690205#1_0" pos="-5" file="NUL" friendlyPos="True"/>
<inductionLoop id="-22690205#2_det" lane="-22690205#2_0" pos="-5" file="NUL" friendlyPos="True"/>
<inductionLoop id="-22690205#3_det" lane="-22690205#3_0" pos="-5" file="NUL" friendlyPos="True"/>
<inductionLoop id="-22716072#3_det" lane="-22716072#3_0" pos="-5" file="NUL" friendlyPos="True"/>
<inductionLoop id="-22716072#5_det" lane="-22716072#5_0" pos="-5" file="NUL" friendlyPos="True"/>
<inductionLoop id="-22716549#6_det" lane="-22716549#6_0" pos="-5" file="NUL" friendlyPos="True"/>
<inductionLoop id="-233675413#0_det" lane="-233675413#0_0" pos="-5" file="NUL" friendlyPos="True"/>
<inductionLoop id="-233675413#1_det" lane="-233675413#1_0" pos="-5" file="NUL" friendlyPos="True"/>
<inductionLoop id="-233675413#2_det" lane="-233675413#2_0" pos="-5" file="NUL" friendlyPos="True"/>
<inductionLoop id="-233675413#3_det" lane="-233675413#3_0" pos="-5" file="NUL" friendlyPos="True"/>
<inductionLoop id="-23436553#1_det" lane="-23436553#1_0" pos="-5" file="NUL" friendlyPos="True"/>
<inductionLoop id="-23436553#2_det" lane="-23436553#2_0" pos="-5" file="NUL" friendlyPos="True"/>
<inductionLoop id="-24634411_det" lane="-24634411_0" pos="-5" file="NUL" friendlyPos="True"/>
<inductionLoop id="-24634507_det" lane="-24634507_0" pos="-5" file="NUL" friendlyPos="True"/>
<inductionLoop id="-24634508_det" lane="-24634508_0" pos="-5" file="NUL" friendlyPos="True"/>
<inductionLoop id="-24634509#0_det" lane="-24634509#0_0" pos="-5" file="NUL" friendlyPos="True"/>
<inductionLoop id="-24693977#0_det" lane="-24693977#0_0" pos="-5" file="NUL" friendlyPos="True"/>
<inductionLoop id="-24693977#1_det" lane="-24693977#1_0" pos="-5" file="NUL" friendlyPos="True"/>
<inductionLoop id="-25117391#1_det" lane="-25117391#1_0" pos="-5" file="NUL" friendlyPos="True"/>
<inductionLoop id="-25117391#2_det" lane="-25117391#2_0" pos="-5" file="NUL" friendlyPos="True"/>
<inductionLoop id="-25136986_det" lane="-25136986_0" pos="-5" file="NUL" friendlyPos="True"/>
<inductionLoop id="-25145011#0_det" lane="-25145011#0_0" pos="-5" file="NUL" friendlyPos="True"/>
<inductionLoop id="-25145011#2_det" lane="-25145011#2_0" pos="-5" file="NUL" friendlyPos="True"/>
<inductionLoop id="-25145012#4_det" lane="-25145012#4_0" pos="-5" file="NUL" friendlyPos="True"/>
<inductionLoop id="-25145012#5_det" lane="-25145012#5_0" pos="-5" file="NUL" friendlyPos="True"/>
<inductionLoop id="-25145013#0_det" lane="-25145013#0_0" pos="-5" file="NUL" friendlyPos="True"/>
<inductionLoop id="-25145013#1_det" lane="-25145013#1_0" pos="-5" file="NUL" friendlyPos="True"/>
<inductionLoop id="-25187895#0_det" lane="-25187895#0_0" pos="-5" file="NUL" friendlyPos="True"/>
<inductionLoop id="-25187896_det" lane="-25187896_0" pos="-5" file="NUL" friendlyPos="True"/>
<inductionLoop id="-26642362#0_det" lane="-26642362#0_0" pos="-5" file="NUL" friendlyPos="True"/>
<inductionLoop id="-26642362#5_det" lane="-26642362#5_0" pos="-5" file="NUL" friendlyPos="True"/>
<inductionLoop id="-26677214#5_det" lane="-26677214#5_0" pos="-5" file="NUL" friendlyPos="True"/>
<inductionLoop id="-26677542#0_det" lane="-26677542#0_0" pos="-5" file="NUL" friendlyPos="True"/>
<inductionLoop id="-28111977#6_det" lane="-28111977#6_0" pos="-5" file="NUL" friendlyPos="True"/>
<inductionLoop id="-28111977#7_det" lane="-28111977#7_0" pos="-5" file="NUL" friendlyPos="True"/>
<inductionLoop id="-28111977#8_det" lane="-28111977#8_0" pos="-5" file="NUL" friendlyPos="True"/>
<inductionLoop id="-28111977#9_det" lane="-28111977#9_0" pos="-5" file="NUL" friendlyPos="True"/>
<inductionLoop id="-28319300#2_det" lane="-28319300#2_0" pos="-5" file="NUL" friendlyPos="True"/>
<inductionLoop id="-315358255#4_det" lane="-315358255#4_0" pos="-5" file="NUL" friendlyPos="True"/>
<inductionLoop id="-315392062#4_det" lane="-315392062#4_0" pos="-5" file="NUL" friendlyPos="True"/>
<inductionLoop id="-32124745_det" lane="-32124745_0" pos="-5" file="NUL" friendlyPos="True"/>
<inductionLoop id="-37681424#0_det" lane="-37681424#0_0" pos="-5" file="NUL" friendlyPos="True"/>
<inductionLoop id="-37681424#1_det" lane="-37681424#1_0" pos="-5" file="NUL" friendlyPos="True"/>
<inductionLoop id="-41203916#3_det" lane="-41203916#3_0" pos="-5" file="NUL" friendlyPos="True"/>
<inductionLoop id="-653473568#0_det" lane="-653473568#0_0" pos="-5" file="NUL" friendlyPos="True"/>
<inductionLoop id="-653473568#1_det" lane="-653473568#1_0" pos="-5" file="NUL" friendlyPos="True"/>
<inductionLoop id="-653473569#0_det" lane="-653473569#0_0" pos="-5" file="NUL" friendlyPos="True"/>
<inductionLoop id="-653473569#1_det" lane="-653473569#1_0" pos="-5" file="NUL" friendlyPos="True"/>
<inductionLoop id="-653473569#2_det" lane="-653473569#2_0" pos="-5" file="NUL" friendlyPos="True"/>
<inductionLoop id="-83304175#2_det" lane="-83304175#2_0" pos="-5" file="NUL" friendlyPos="True"/>
<inductionLoop id="104010439#1_det" lane="104010439#1_0" pos="-5" file="NUL" friendlyPos="True"/>
<inductionLoop id="104010475#0_det" lane="104010475#0_0" pos="-5" file="NUL" friendlyPos="True"/>
<inductionLoop id="104012170_det" lane="104012170_0" pos="-5" file="NUL" friendlyPos="True"/>
<inductionLoop id="137133006#0_det" lane="137133006#0_0" pos="-5" file="NUL" friendlyPos="True"/>
<inductionLoop id="137133006#1_det" lane="137133006#1_0" pos="-5" file="NUL" friendlyPos="True"/>
<inductionLoop id="164051413_det" lane="164051413_0" pos="-5" file="NUL" friendlyPos="True"/>
<inductionLoop id="170425366#0_det" lane="170425366#0_0" pos="-5" file="NUL" friendlyPos="True"/>
<inductionLoop id="172488483#0_det" lane="172488483#0_0" pos="-5" file="NUL" friendlyPos="True"/>
<inductionLoop id="173203413#0_det" lane="173203413#0_0" pos="-5" file="NUL" friendlyPos="True"/>
<inductionLoop id="176550246_det" lane="176550246_0" pos="-5" file="NUL" friendlyPos="True"/>
<inductionLoop id="18809672#0_det" lane="18809672#0_0" pos="-5" file="NUL" friendlyPos="True"/>
<inductionLoop id="18809672#2_det" lane="18809672#2_0" pos="-5" file="NUL" friendlyPos="True"/>
<inductionLoop id="18809672#5_det" lane="18809672#5_0" pos="-5" file="NUL" friendlyPos="True"/>
<inductionLoop id="18809672#7_det" lane="18809672#7_0" pos="-5" file="NUL" friendlyPos="True"/>
<inductionLoop id="201089420#0_det" lane="201089420#0_0" pos="-5" file="NUL" friendlyPos="True"/>
<inductionLoop id="201089423#0_det" lane="201089423#0_0" pos="-5" file="NUL" friendlyPos="True"/>
<inductionLoop id="201089423#2_det" lane="201089423#2_0" pos="-5" file="NUL" friendlyPos="True"/>
<inductionLoop id="201201950#0_det" lane="201201950#0_0" pos="-5" file="NUL" friendlyPos="True"/>
<inductionLoop id="201201953#10_det" lane="201201953#10_0" pos="-5" file="NUL" friendlyPos="True"/>
<inductionLoop id="201201953#12_det" lane="201201953#12_0" pos="-5" file="NUL" friendlyPos="True"/>
<inductionLoop id="201201953#4_det" lane="201201953#4_0" pos="-5" file="NUL" friendlyPos="True"/>
<inductionLoop id="201963522#5_det" lane="201963522#5_0" pos="-5" file="NUL" friendlyPos="True"/>
<inductionLoop id="202070434#0_det" lane="202070434#0_0" pos="-5" file="NUL" friendlyPos="True"/>
<inductionLoop id="202070434#2_det" lane="202070434#2_0" pos="-5" file="NUL" friendlyPos="True"/>
<inductionLoop id="204588664#0_det" lane="204588664#0_0" pos="-5" file="NUL" friendlyPos="True"/>
<inductionLoop id="224892361#3_det" lane="224892361#3_0" pos="-5" file="NUL" friendlyPos="True"/>
<inductionLoop id="224892361#7_det" lane="224892361#7_0" pos="-5" file="NUL" friendlyPos="True"/>
<inductionLoop id="22724699#0_det" lane="22724699#0_0" pos="-5" file="NUL" friendlyPos="True"/>
<inductionLoop id="22724699#2_det" lane="22724699#2_0" pos="-5" file="NUL" friendlyPos="True"/>
<inductionLoop id="23166741#5_det" lane="23166741#5_0" pos="-5" file="NUL" friendlyPos="True"/>
<inductionLoop id="233675413#4_det" lane="233675413#4_0" pos="-5" file="NUL" friendlyPos="True"/>
<inductionLoop id="233675413#7_det" lane="233675413#7_0" pos="-5" file="NUL" friendlyPos="True"/>
<inductionLoop id="23436553#3_det" lane="23436553#3_0" pos="-5" file="NUL" friendlyPos="True"/>
<inductionLoop id="24634510#0_det" lane="24634510#0_0" pos="-5" file="NUL" friendlyPos="True"/>
<inductionLoop id="24634510#1_det" lane="24634510#1_0" pos="-5" file="NUL" friendlyPos="True"/>
<inductionLoop id="24634510#6_det" lane="24634510#6_0" pos="-5" file="NUL" friendlyPos="True"/>
<inductionLoop id="25145012#6_det" lane="25145012#6_0" pos="-5" file="NUL" friendlyPos="True"/>
<inductionLoop id="26677216#0_det" lane="26677216#0_0" pos="-5" file="NUL" friendlyPos="True"/>
<inductionLoop id="26677216#1_det" lane="26677216#1_0" pos="-5" file="NUL" friendlyPos="True"/>
<inductionLoop id="26677216#2_det" lane="26677216#2_0" pos="-5" file="NUL" friendlyPos="True"/>
<inductionLoop id="26677216#3_det" lane="26677216#3_0" pos="-5" file="NUL" friendlyPos="True"/>
<inductionLoop id="26677416#1_det" lane="26677416#1_0" pos="-5" file="NUL" friendlyPos="True"/>
<inductionLoop id="26677417#0_det" lane="26677417#0_0" pos="-5" file="NUL" friendlyPos="True"/>
<inductionLoop id="26677417#1_det" lane="26677417#1_0" pos="-5" file="NUL" friendlyPos="True"/>
<inductionLoop id="26677542#1_det" lane="26677542#1_0" pos="-5" file="NUL" friendlyPos="True"/>
<inductionLoop id="27920078#0_det" lane="27920078#0_0" pos="-5" file="NUL" friendlyPos="True"/>
<inductionLoop id="27920078#1_det" lane="27920078#1_0" pos="-5" file="NUL" friendlyPos="True"/>
<inductionLoop id="28111977#0_det" lane="28111977#0_0" pos="-5" file="NUL" friendlyPos="True"/>
<inductionLoop id="28111977#10_det" lane="28111977#10_0" pos="-5" file="NUL" friendlyPos="True"/>
<inductionLoop id="285716192#0_det" lane="285716192#0_0" pos="-5" file="NUL" friendlyPos="True"/>
<inductionLoop id="285716192#0.83_det" lane="285716192#0.83_0" pos="-5" file="NUL" friendlyPos="True"/>
<inductionLoop id="315358257#0_det" lane="315358257#0_0" pos="-5" file="NUL" friendlyPos="True"/>
<inductionLoop id="315358257#0.43_det" lane="315358257#0.43_0" pos="-5" file="NUL" friendlyPos="True"/>
<inductionLoop id="32124743_det" lane="32124743_0" pos="-5" file="NUL" friendlyPos="True"/>
<inductionLoop id="32124744_det" lane="32124744_0" pos="-5" file="NUL" friendlyPos="True"/>
<inductionLoop id="32395288#0_det" lane="32395288#0_0" pos="-5" file="NUL" friendlyPos="True"/>
<inductionLoop id="37681425#7_det" lane="37681425#7_0" pos="-5" file="NUL" friendlyPos="True"/>
<inductionLoop id="40888359_det" lane="40888359_0" pos="-5" file="NUL" friendlyPos="True"/>
<inductionLoop id="653473569#3_det" lane="653473569#3_0" pos="-5" file="NUL" friendlyPos="True"/>
<inductionLoop id="653473569#5_det" lane="653473569#5_0" pos="-5" file="NUL" friendlyPos="True"/>
</additional>
