<routes>
<vType id="Human" color="red" guiShape="passenger/sedan"/>
<vType id="AV" color="yellow"/>
<route id="0_0_0" edges="
-41203916#3 -28319300#2 201089420#0 315358257#0 315358257#0.43 -315358255#4 -224892339#3 224892361#3 224892361#7 -170018165#0 137133006#0 137133006#1 -201238726#1 -201238726#0 -201238726#0.98 -10427692#8 -10427692#7 -10427692#6 -10427692#5 -10427692#4 -10427692#3 -10427692#2 -10427692#1 18809672#0 18809672#2 18809672#5 -37681424#1 -37681424#0 37681425#7 201963522#5 32395288#0
" />
<route id="0_0_1" edges="
-41203916#3 -28319300#2 40888359 -201201945#7 -201201945#6 22724699#0 22724699#2 173203413#0 201201953#4 201201953#10 201201953#12 176550246 -201238726#1 -201238726#0 -201238726#0.98 -10427692#8 -10427692#7 -10427692#6 -10427692#5 -10427692#4 -10427692#3 -10427692#2 -10427692#1 18809672#0 18809672#2 18809672#5 -37681424#1 -37681424#0 37681425#7 201963522#5 32395288#0
" />
<route id="0_0_2" edges="
-41203916#3 -28319300#2 40888359 -201201945#7 -201201945#6 22724699#0 22724699#2 173203413#0 201201953#4 201201953#10 201201953#12 176550246 -201238726#1 -201238726#0 -201238726#0.98 -10427692#8 -10427692#7 -10427692#6 -10427692#5 -10427692#4 -10427692#3 -10427692#2 -10427692#1 18809672#0 18809672#2 170425366#0 18809672#7 28111977#0 -37681424#0 37681425#7 201963522#5 32395288#0
" />
<route id="0_0_3" edges="
-41203916#3 -28319300#2 -201201945#8 -201201945#7 -201201945#6 22724699#0 22724699#2 173203413#0 201201953#4 201201953#10 201201953#12 176550246 -201238726#1 -201238726#0 -201238726#0.98 -10427692#8 -10427692#7 -10427692#6 -10427692#5 -10427692#4 -10427692#3 -10427692#2 -10427692#1 18809672#0 18809672#2 18809672#5 -37681424#1 -37681424#0 37681425#7 201963522#5 32395288#0
" />
<route id="0_0_4" edges="
-41203916#3 -28319300#2 -201201945#8 -201201945#7 -201201945#6 22724699#0 22724699#2 173203413#0 201201953#4 201201953#10 201201953#12 176550246 -201238726#1 -201238726#0 -201238726#0.98 -10427692#8 -10427692#7 -10427692#6 -10427692#5 -10427692#4 -10427692#3 -10427692#2 -10427692#1 18809672#0 18809672#2 170425366#0 -18809672#6 -37681424#1 -37681424#0 37681425#7 201963522#5 32395288#0
" />
<route id="0_1_0" edges="
-41203916#3 -28319300#2 -201201945#8 -201201945#7 -201201945#6 -201201945#2 -201201945#1 -201201945#0 -201201945#0.78 -174800513 201201950#0 -24634411 -160314345#0 -315392062#4 -24693977#1 -24693977#0 201089423#0 201089423#2 32124744 32124743 285716192#0 285716192#0.83 104010439#1 202070434#0 202070434#2 27920078#0 27920078#1 -32124745 172488483#0 -83304175#2
" />
<route id="0_1_1" edges="
-41203916#3 -28319300#2 -201201945#8 -201201945#7 -201201945#6 -201201945#2 -201201945#1 -201201945#0 -201201945#0.78 -174800513 -201238718#1 -201238724 24634510#0 24634510#1 24634510#6 204588664#0 -23436553#2 -23436553#1 -22690205#1 233675413#4 -25145011#2 25145012#6 -25145013#0 653473569#5 164051413 104010475#0 104012170 -32124745 172488483#0 -83304175#2
" />
<route id="0_1_2" edges="
-41203916#3 -28319300#2 40888359 -201201945#7 -201201945#6 -201201945#2 -201201945#1 -201201945#0 -201201945#0.78 -174800513 -201238718#1 -201238718#0 -315392062#4 -24693977#1 -24693977#0 201089423#0 201089423#2 32124744 32124743 285716192#0 285716192#0.83 104010439#1 202070434#0 202070434#2 27920078#0 27920078#1 -32124745 172488483#0 -83304175#2
" />
<route id="0_1_3" edges="
-41203916#3 -28319300#2 -201201945#8 -201201945#7 -201201945#6 -201201945#2 -201201945#1 -201201945#0 -201201945#0.78 -174800513 -201238718#1 -201238718#0 -315392062#4 -24634508 -24634507 -24634509#0 -22716549#6 201089423#2 32124744 32124743 285716192#0 285716192#0.83 104010439#1 202070434#0 202070434#2 27920078#0 27920078#1 -32124745 172488483#0 -83304175#2
" />
<route id="0_1_4" edges="
-41203916#3 -28319300#2 -201201945#8 -201201945#7 -201201945#6 -201201945#2 -201201945#1 -201201945#0 -201201945#0.78 -174800513 -201238718#1 -201238724 24634510#0 24634510#1 24634510#6 204588664#0 23436553#3 -22690205#3 -22690205#2 -22690205#1 233675413#4 233675413#7 -25145013#1 -25145013#0 653473569#5 164051413 104010475#0 104012170 -32124745 172488483#0 -83304175#2
" />
<route id="1_0_0" edges="
26677416#1 26677417#0 26677417#1 26677542#1 -26677214#5 26677216#0 26677216#1 26677216#2 26677216#3 23166741#5 -174800513 -201238718#1 -201238724 24634510#0 24634510#1 24634510#6 204588664#0 -23436553#2 -23436553#1 -22690205#1 233675413#4 -25145011#2 -25145012#5 -25145012#4 -25187896 -25187895#0 -28111977#9 -28111977#8 -28111977#7 -28111977#6 -26642362#0 -25136986 -18813598#6 -18813598#1 -201963522#9 32395288#0
" />
<route id="1_0_1" edges="
26677416#1 26677417#0 26677417#1 26677542#1 -26677214#5 26677216#0 26677216#1 26677216#2 26677216#3 23166741#5 -174800513 -201238718#1 -201238724 24634510#0 24634510#1 24634510#6 204588664#0 -23436553#2 -23436553#1 -22690205#1 233675413#4 -25145011#2 -25145011#0 -653473569#2 -653473569#1 -653473569#0 -653473568#1 -653473568#0 -18813598#8 -18813598#7 -18813598#6 -18813598#1 -201963522#9 32395288#0
" />
<route id="1_0_2" edges="
26677416#1 26677417#0 26677417#1 26677542#1 -26677214#5 26677216#0 26677216#1 26677216#2 26677216#3 23166741#5 -174800513 -201238718#1 -201238724 24634510#0 24634510#1 24634510#6 204588664#0 -23436553#2 -23436553#1 -22690205#1 233675413#4 -25145011#2 -25145012#5 -25145012#4 -25187896 -25187895#0 28111977#10 -653473568#0 -18813598#8 -18813598#7 -18813598#6 -18813598#1 -201963522#9 32395288#0
" />
<route id="1_0_3" edges="
26677416#1 26677417#0 26677417#1 26677542#1 -26677214#5 26677216#0 26677216#1 26677216#2 26677216#3 23166741#5 -174800513 -201238718#1 -201238724 24634510#0 24634510#1 24634510#6 204588664#0 -23436553#2 -23436553#1 -22690205#1 -233675413#3 -233675413#2 -233675413#1 -233675413#0 -136728347#4 -26642362#5 -22716072#5 -22716072#3 18809672#2 18809672#5 -37681424#1 -37681424#0 37681425#7 201963522#5 32395288#0
" />
<route id="1_0_4" edges="
26677416#1 26677417#0 26677417#1 -26677542#0 -201950263#6 -25117391#2 -25117391#1 315358257#0 315358257#0.43 -315358255#4 -224892339#3 224892361#3 224892361#7 -170018165#0 137133006#0 137133006#1 -201238726#1 -201238726#0 -201238726#0.98 -10427692#8 -10427692#7 -10427692#6 -10427692#5 -10427692#4 -10427692#3 -10427692#2 -10427692#1 18809672#0 18809672#2 18809672#5 -37681424#1 -37681424#0 37681425#7 201963522#5 32395288#0
" />
<route id="1_1_0" edges="
26677416#1 26677417#0 26677417#1 26677542#1 -26677214#5 26677216#0 26677216#1 26677216#2 26677216#3 23166741#5 -174800513 -201238718#1 -201238718#0 -315392062#4 -24693977#1 -24693977#0 201089423#0 201089423#2 32124744 32124743 285716192#0 285716192#0.83 104010439#1 202070434#0 202070434#2 27920078#0 27920078#1 -32124745 172488483#0 -83304175#2
" />
<route id="1_1_1" edges="
26677416#1 26677417#0 26677417#1 26677542#1 -26677214#5 26677216#0 26677216#1 26677216#2 26677216#3 23166741#5 -174800513 -201238718#1 -201238718#0 -315392062#4 -24634508 -24634507 -24634509#0 -22716549#6 201089423#2 32124744 32124743 285716192#0 285716192#0.83 104010439#1 202070434#0 202070434#2 27920078#0 27920078#1 -32124745 172488483#0 -83304175#2
" />
<route id="1_1_2" edges="
26677416#1 26677417#0 26677417#1 26677542#1 -26677214#5 26677216#0 26677216#1 26677216#2 26677216#3 23166741#5 -174800513 201201950#0 -24634411 -160314345#0 -315392062#4 -24693977#1 -24693977#0 201089423#0 201089423#2 32124744 32124743 285716192#0 285716192#0.83 104010439#1 202070434#0 202070434#2 27920078#0 27920078#1 -32124745 172488483#0 -83304175#2
" />
<route id="1_1_3" edges="
26677416#1 26677417#0 26677417#1 26677542#1 -26677214#5 26677216#0 26677216#1 26677216#2 26677216#3 23166741#5 -174800513 -201238718#1 -201238724 24634510#0 24634510#1 24634510#6 204588664#0 -23436553#2 -23436553#1 -22690205#1 233675413#4 -25145011#2 -25145011#0 653473569#3 653473569#5 164051413 104010475#0 104012170 -32124745 172488483#0 -83304175#2
" />
<route id="1_1_4" edges="
26677416#1 26677417#0 26677417#1 26677542#1 -26677214#5 26677216#0 26677216#1 26677216#2 26677216#3 23166741#5 -174800513 201201950#0 -24634411 -160314345#0 -315392062#4 -24634508 -24634507 -24634509#0 -22716549#6 201089423#2 32124744 32124743 285716192#0 285716192#0.83 104010439#1 202070434#0 202070434#2 27920078#0 27920078#1 -32124745 172488483#0 -83304175#2
" />
</routes>
