<additional>
<inductionLoop id="-186623965#14_det" lane="-186623965#14_0" pos="-5" file="NUL" friendlyPos="True"/>
<inductionLoop id="-186623965#16_det" lane="-186623965#16_0" pos="-5" file="NUL" friendlyPos="True"/>
<inductionLoop id="-22917421#14_det" lane="-22917421#14_0" pos="-5" file="NUL" friendlyPos="True"/>
<inductionLoop id="-23283579#0_det" lane="-23283579#0_0" pos="-5" file="NUL" friendlyPos="True"/>
<inductionLoop id="-23283579#1_det" lane="-23283579#1_0" pos="-5" file="NUL" friendlyPos="True"/>
<inductionLoop id="-23648008#0_det" lane="-23648008#0_0" pos="-5" file="NUL" friendlyPos="True"/>
<inductionLoop id="-23648008#1_det" lane="-23648008#1_0" pos="-5" file="NUL" friendlyPos="True"/>
<inductionLoop id="-25166682#0_det" lane="-25166682#0_0" pos="-5" file="NUL" friendlyPos="True"/>
<inductionLoop id="-28675510#3_det" lane="-28675510#3_0" pos="-5" file="NUL" friendlyPos="True"/>
<inductionLoop id="-28675510#5_det" lane="-28675510#5_0" pos="-5" file="NUL" friendlyPos="True"/>
<inductionLoop id="-297047307_det" lane="-297047307_0" pos="-5" file="NUL" friendlyPos="True"/>
<inductionLoop id="-297047310#2_det" lane="-297047310#2_0" pos="-5" file="NUL" friendlyPos="True"/>
<inductionLoop id="-297047310#3_det" lane="-297047310#3_0" pos="-5" file="NUL" friendlyPos="True"/>
<inductionLoop id="-309744810#1_det" lane="-309744810#1_0" pos="-5" file="NUL" friendlyPos="True"/>
<inductionLoop id="-4936412_det" lane="-4936412_0" pos="-5" file="NUL" friendlyPos="True"/>
<inductionLoop id="-8716807#0_det" lane="-8716807#0_0" pos="-5" file="NUL" friendlyPos="True"/>
<inductionLoop id="-8716807#4_det" lane="-8716807#4_0" pos="-5" file="NUL" friendlyPos="True"/>
<inductionLoop id="-8716807#5_det" lane="-8716807#5_0" pos="-5" file="NUL" friendlyPos="True"/>
<inductionLoop id="133081985#0_det" lane="133081985#0_0" pos="-5" file="NUL" friendlyPos="True"/>
<inductionLoop id="133081985#1_det" lane="133081985#1_0" pos="-5" file="NUL" friendlyPos="True"/>
<inductionLoop id="133081987#0_det" lane="133081987#0_0" pos="-5" file="NUL" friendlyPos="True"/>
<inductionLoop id="133081987#3_det" lane="133081987#3_0" pos="-5" file="NUL" friendlyPos="True"/>
<inductionLoop id="186623965#15_det" lane="186623965#15_0" pos="-5" file="NUL" friendlyPos="True"/>
<inductionLoop id="22917421#5_det" lane="22917421#5_0" pos="-5" file="NUL" friendlyPos="True"/>
<inductionLoop id="22959550#0_det" lane="22959550#0_0" pos="-5" file="NUL" friendlyPos="True"/>
<inductionLoop id="22959550#1_det" lane="22959550#1_0" pos="-5" file="NUL" friendlyPos="True"/>
<inductionLoop id="22959550#3_det" lane="22959550#3_0" pos="-5" file="NUL" friendlyPos="True"/>
<inductionLoop id="22959550#4_det" lane="22959550#4_0" pos="-5" file="NUL" friendlyPos="True"/>
<inductionLoop id="23283435#1_det" lane="23283435#1_0" pos="-5" file="NUL" friendlyPos="True"/>
<inductionLoop id="23647126_det" lane="23647126_0" pos="-5" file="NUL" friendlyPos="True"/>
<inductionLoop id="23648008#1_det" lane="23648008#1_0" pos="-5" file="NUL" friendlyPos="True"/>
<inductionLoop id="23686088#0_det" lane="23686088#0_0" pos="-5" file="NUL" friendlyPos="True"/>
<inductionLoop id="23686088#1_det" lane="23686088#1_0" pos="-5" file="NUL" friendlyPos="True"/>
<inductionLoop id="23840713#0_det" lane="23840713#0_0" pos="-5" file="NUL" friendlyPos="True"/>
<inductionLoop id="23840971_det" lane="23840971_0" pos="-5" file="NUL" friendlyPos="True"/>
<inductionLoop id="28675510#0_det" lane="28675510#0_0" pos="-5" file="NUL" friendlyPos="True"/>
<inductionLoop id="28675510#1_det" lane="28675510#1_0" pos="-5" file="NUL" friendlyPos="True"/>
<inductionLoop id="28675510#4_det" lane="28675510#4_0" pos="-5" file="NUL" friendlyPos="True"/>
<inductionLoop id="297047310#4_det" lane="297047310#4_0" pos="-5" file="NUL" friendlyPos="True"/>
</additional>
